<?xml version="1.0" encoding="UTF-8"?>

<!-- generated on 2024-07-01 13:28:44 by Eclipse SUMO netedit Version 1.20.0
<configuration xmlns:xsi="http://www.w3.org/2001/XMLSchema-instance" xsi:noNamespaceSchemaLocation="http://sumo.dlr.de/xsd/neteditConfiguration.xsd">

    <input>
        <sumocfg-file value="/home/lucvil/artery/scenarios/vguard-test/vguard-test.sumocfg"/>
        <additional-files value=""/>
        <route-files value="/home/lucvil/artery/scenarios/vguard-test/vguard-test.rou.xml"/>
        <sumo-net-file value="/home/lucvil/artery/scenarios/vguard-test/vguard-test.net.xml"/>
    </input>

    <output>
        <output-file value="/home/lucvil/artery/scenarios/vguard-test/vguard-test.net.xml"/>
    </output>

    <processing>
        <geometry.min-radius.fix.railways value="false"/>
        <geometry.max-grade.fix value="false"/>
        <offset.disable-normalization value="true"/>
        <lefthand value="1"/>
    </processing>

    <junctions>
        <no-turnarounds value="true"/>
        <junctions.corner-detail value="5"/>
        <junctions.limit-turn-speed value="5.50"/>
        <rectangular-lane-cut value="0"/>
    </junctions>

    <pedestrian>
        <walkingareas value="0"/>
    </pedestrian>

</configuration>
-->

<net version="1.20" junctionCornerDetail="5" lefthand="true" limitTurnSpeed="5.50" xmlns:xsi="http://www.w3.org/2001/XMLSchema-instance" xsi:noNamespaceSchemaLocation="http://sumo.dlr.de/xsd/net_file.xsd">

    <location netOffset="0.00,0.00" convBoundary="-400.00,100.00,400.00,110.00" origBoundary="-10000000000.000000,-10000000000.000000,10000000000.000000,10000000000.000000" projParameter="+proj=utm +zone=22 +ellps=WGS84 +datum=WGS84 +units=m +no_defs"/>

    <edge id=":n2_0" function="internal">
        <lane id=":n2_0_0" index="0" speed="30.00" length="0.10" shape="-0.00,98.40 0.00,98.40"/>
    </edge>
    <edge id=":n2_1" function="internal">
        <lane id=":n2_1_0" index="0" speed="30.00" length="0.10" shape="0.00,101.60 -0.00,101.60"/>
    </edge>

    <edge id="J1_J2" from="J1" to="J2" priority="-1">
        <lane id="J1_J2_0" index="0" speed="30.00" length="5.00" shape="1.60,110.00 1.60,105.00"/>
    </edge>
    <edge id="n1_n2" from="n1" to="n2" priority="-1">
        <lane id="n1_n2_0" index="0" speed="30.00" length="400.00" shape="-400.00,101.60 0.00,101.60"/>
    </edge>
    <edge id="n2_n1" from="n2" to="n1" priority="-1">
        <lane id="n2_n1_0" index="0" speed="30.00" length="400.00" shape="0.00,98.40 -400.00,98.40"/>
    </edge>
    <edge id="n2_n3" from="n2" to="n3" priority="-1">
        <lane id="n2_n3_0" index="0" speed="30.00" length="400.00" shape="-0.00,101.60 400.00,101.60"/>
    </edge>
    <edge id="n3_n2" from="n3" to="n2" priority="-1">
        <lane id="n3_n2_0" index="0" speed="30.00" length="400.00" shape="400.00,98.40 -0.00,98.40"/>
    </edge>

    <junction id="J1" type="dead_end" x="0.00" y="110.00" incLanes="" intLanes="" shape="0.00,110.00 3.20,110.00"/>
    <junction id="J2" type="dead_end" x="0.00" y="105.00" incLanes="J1_J2_0" intLanes="" shape="3.20,105.00 0.00,105.00"/>
    <junction id="n1" type="dead_end" x="-400.00" y="100.00" incLanes="n2_n1_0" intLanes="" shape="-400.00,100.00 -400.00,96.80 -400.00,100.00"/>
    <junction id="n2" type="priority" x="0.00" y="100.00" incLanes="n3_n2_0 n1_n2_0" intLanes=":n2_0_0 :n2_1_0" shape="-0.00,96.80 -0.00,103.20 0.00,96.80">
        <request index="0" response="00" foes="00" cont="0"/>
        <request index="1" response="00" foes="00" cont="0"/>
    </junction>
    <junction id="n3" type="dead_end" x="400.00" y="100.00" incLanes="n2_n3_0" intLanes="" shape="400.00,100.00 400.00,103.20 400.00,100.00"/>

    <connection from="n1_n2" to="n2_n3" fromLane="0" toLane="0" via=":n2_1_0" dir="s" state="M"/>
    <connection from="n3_n2" to="n2_n1" fromLane="0" toLane="0" via=":n2_0_0" dir="s" state="M"/>

    <connection from=":n2_0" to="n2_n1" fromLane="0" toLane="0" dir="s" state="M"/>
    <connection from=":n2_1" to="n2_n3" fromLane="0" toLane="0" dir="s" state="M"/>

</net>
