<?xml version="1.0" encoding="UTF-8"?>

<!-- generated on 2024-07-01 13:28:44 by Eclipse SUMO netedit Version 1.20.0
-->

<routes xmlns:xsi="http://www.w3.org/2001/XMLSchema-instance" xsi:noNamespaceSchemaLocation="http://sumo.dlr.de/xsd/routes_file.xsd">
    <!-- VTypes -->
    <vType id="Car" length="5.00" minGap="2.50" maxSpeed="19.44" accel="2.6" decel="4.5" sigma="0.5"/>
    <!-- Routes -->
    <route id="r_0" edges="n1_n2 n2_n3"/>
    <route id="r_1" edges="n3_n2 n2_n1"/>
    <route id="r_2" edges="J1_J2"/>
    <!-- Vehicles, persons and containers (sorted by depart) -->
    <vehicle id="s_1" depart="0.00" route="r_2">
        <stop lane="J1_J2_0" startPos="0.00" endPos="0.00" duration="1000.00" friendlyPos="1"/>
    </vehicle>
    <vehicle id="v_l_1" type="Car" depart="0.00" route="r_0"/>
    <vehicle id="v_r_1" type="Car" depart="0.00" route="r_1"/>
    <vehicle id="v_l_2" type="Car" depart="5.00" route="r_0"/>
    <vehicle id="v_r_2" type="Car" depart="5.00" route="r_1"/>
    <vehicle id="v_l_3" type="Car" depart="10.00" route="r_0"/>
    <vehicle id="v_r_3" type="Car" depart="10.00" route="r_1"/>
    <vehicle id="v_l_4" type="Car" depart="15.00" route="r_0"/>
    <vehicle id="v_r_4" type="Car" depart="15.00" route="r_1"/>
    <vehicle id="v_l_5" type="Car" depart="20.00" route="r_0"/>
    <vehicle id="v_r_5" type="Car" depart="20.00" route="r_1"/>
    <vehicle id="v_l_6" type="Car" depart="25.00" route="r_0"/>
    <vehicle id="v_r_6" type="Car" depart="25.00" route="r_1"/>
    <vehicle id="v_l_7" type="Car" depart="30.00" route="r_0"/>
    <vehicle id="v_r_7" type="Car" depart="30.00" route="r_1"/>
    <vehicle id="v_l_8" type="Car" depart="35.00" route="r_0"/>
    <vehicle id="v_r_8" type="Car" depart="35.00" route="r_1"/>
    <vehicle id="v_l_9" type="Car" depart="40.00" route="r_0"/>
    <vehicle id="v_r_9" type="Car" depart="40.00" route="r_1"/>
    <vehicle id="v_l_10" type="Car" depart="45.00" route="r_0"/>
    <vehicle id="v_r_10" type="Car" depart="45.00" route="r_1"/>
    <vehicle id="v_l_11" type="Car" depart="50.00" route="r_0"/>
    <vehicle id="v_r_11" type="Car" depart="50.00" route="r_1"/>
    <vehicle id="v_l_12" type="Car" depart="55.00" route="r_0"/>
    <vehicle id="v_r_12" type="Car" depart="55.00" route="r_1"/>
    <vehicle id="v_l_13" type="Car" depart="60.00" route="r_0"/>
    <vehicle id="v_r_13" type="Car" depart="60.00" route="r_1"/>
    <vehicle id="v_l_14" type="Car" depart="65.00" route="r_0"/>
    <vehicle id="v_r_14" type="Car" depart="65.00" route="r_1"/>
    <vehicle id="v_l_15" type="Car" depart="70.00" route="r_0"/>
    <vehicle id="v_r_15" type="Car" depart="70.00" route="r_1"/>
    <vehicle id="v_l_16" type="Car" depart="75.00" route="r_0"/>
    <vehicle id="v_r_16" type="Car" depart="75.00" route="r_1"/>
    <vehicle id="v_l_17" type="Car" depart="80.00" route="r_0"/>
    <vehicle id="v_r_17" type="Car" depart="80.00" route="r_1"/>
    <vehicle id="v_l_18" type="Car" depart="85.00" route="r_0"/>
    <vehicle id="v_r_18" type="Car" depart="85.00" route="r_1"/>
    <vehicle id="v_l_19" type="Car" depart="90.00" route="r_0"/>
    <vehicle id="v_r_19" type="Car" depart="90.00" route="r_1"/>
    <vehicle id="v_l_20" type="Car" depart="95.00" route="r_0"/>
    <vehicle id="v_r_20" type="Car" depart="95.00" route="r_1"/>
    <vehicle id="v_l_21" type="Car" depart="100.00" route="r_0"/>
    <vehicle id="v_r_21" type="Car" depart="100.00" route="r_1"/>
    <vehicle id="v_l_22" type="Car" depart="105.00" route="r_0"/>
    <vehicle id="v_r_22" type="Car" depart="105.00" route="r_1"/>
    <vehicle id="v_l_23" type="Car" depart="110.00" route="r_0"/>
    <vehicle id="v_r_23" type="Car" depart="110.00" route="r_1"/>
    <vehicle id="v_l_24" type="Car" depart="115.00" route="r_0"/>
    <vehicle id="v_r_24" type="Car" depart="115.00" route="r_1"/>
    <vehicle id="v_l_25" type="Car" depart="120.00" route="r_0"/>
    <vehicle id="v_r_25" type="Car" depart="120.00" route="r_1"/>
    <vehicle id="v_l_26" type="Car" depart="125.00" route="r_0"/>
    <vehicle id="v_r_26" type="Car" depart="125.00" route="r_1"/>
    <vehicle id="v_l_27" type="Car" depart="130.00" route="r_0"/>
    <vehicle id="v_r_27" type="Car" depart="130.00" route="r_1"/>
    <vehicle id="v_l_28" type="Car" depart="135.00" route="r_0"/>
    <vehicle id="v_r_28" type="Car" depart="135.00" route="r_1"/>
    <vehicle id="v_l_29" type="Car" depart="140.00" route="r_0"/>
    <vehicle id="v_r_29" type="Car" depart="140.00" route="r_1"/>
    <vehicle id="v_l_30" type="Car" depart="145.00" route="r_0"/>
    <vehicle id="v_r_30" type="Car" depart="145.00" route="r_1"/>
    <vehicle id="v_l_31" type="Car" depart="150.00" route="r_0"/>
    <vehicle id="v_r_31" type="Car" depart="150.00" route="r_1"/>
    <vehicle id="v_l_32" type="Car" depart="155.00" route="r_0"/>
    <vehicle id="v_r_32" type="Car" depart="155.00" route="r_1"/>
    <vehicle id="v_l_33" type="Car" depart="160.00" route="r_1"/>
    <vehicle id="v_r_33" type="Car" depart="160.00" route="r_0"/>
    <vehicle id="v_l_34" type="Car" depart="165.00" route="r_1"/>
    <vehicle id="v_r_34" type="Car" depart="165.00" route="r_0"/>
    <vehicle id="v_l_35" type="Car" depart="170.00" route="r_1"/>
    <vehicle id="v_r_35" type="Car" depart="170.00" route="r_0"/>
    <vehicle id="v_l_36" type="Car" depart="175.00" route="r_0"/>
    <vehicle id="v_r_36" type="Car" depart="175.00" route="r_1"/>
    <vehicle id="v_l_37" type="Car" depart="180.00" route="r_0"/>
    <vehicle id="v_r_37" type="Car" depart="180.00" route="r_1"/>
    <vehicle id="v_l_38" type="Car" depart="185.00" route="r_1"/>
    <vehicle id="v_r_38" type="Car" depart="185.00" route="r_0"/>
    <vehicle id="v_l_39" type="Car" depart="190.00" route="r_1"/>
    <vehicle id="v_r_39" type="Car" depart="190.00" route="r_0"/>
    <vehicle id="v_l_40" type="Car" depart="195.00" route="r_1"/>
    <vehicle id="v_r_40" type="Car" depart="195.00" route="r_0"/>
    <vehicle id="v_l_41" type="Car" depart="200.00" route="r_0"/>
    <vehicle id="v_r_41" type="Car" depart="200.00" route="r_1"/>
    <vehicle id="v_l_42" type="Car" depart="205.00" route="r_0"/>
    <vehicle id="v_r_42" type="Car" depart="205.00" route="r_1"/>
    <vehicle id="v_l_43" type="Car" depart="210.00" route="r_1"/>
    <vehicle id="v_r_43" type="Car" depart="210.00" route="r_0"/>
    <vehicle id="v_l_44" type="Car" depart="215.00" route="r_1"/>
    <vehicle id="v_r_44" type="Car" depart="215.00" route="r_0"/>
    <vehicle id="v_l_45" type="Car" depart="220.00" route="r_1"/>
    <vehicle id="v_r_45" type="Car" depart="220.00" route="r_0"/>
    <vehicle id="v_l_46" type="Car" depart="225.00" route="r_1"/>
    <vehicle id="v_r_46" type="Car" depart="225.00" route="r_0"/>
    <vehicle id="v_l_47" type="Car" depart="230.00" route="r_1"/>
    <vehicle id="v_r_47" type="Car" depart="230.00" route="r_0"/>
    <vehicle id="v_l_48" type="Car" depart="235.00" route="r_1"/>
    <vehicle id="v_r_48" type="Car" depart="235.00" route="r_0"/>
    <vehicle id="v_l_49" type="Car" depart="240.00" route="r_1"/>
    <vehicle id="v_r_49" type="Car" depart="240.00" route="r_0"/>
    <vehicle id="v_l_50" type="Car" depart="245.00" route="r_1"/>
    <vehicle id="v_r_50" type="Car" depart="245.00" route="r_0"/>
    <vehicle id="v_l_51" type="Car" depart="250.00" route="r_1"/>
    <vehicle id="v_r_51" type="Car" depart="250.00" route="r_0"/>
    <vehicle id="v_l_52" type="Car" depart="255.00" route="r_1"/>
    <vehicle id="v_r_52" type="Car" depart="255.00" route="r_0"/>
    <vehicle id="v_l_53" type="Car" depart="260.00" route="r_1"/>
    <vehicle id="v_r_53" type="Car" depart="260.00" route="r_0"/>
    <vehicle id="v_l_54" type="Car" depart="265.00" route="r_1"/>
    <vehicle id="v_r_54" type="Car" depart="265.00" route="r_0"/>
    <vehicle id="v_l_55" type="Car" depart="270.00" route="r_1"/>
    <vehicle id="v_r_55" type="Car" depart="270.00" route="r_0"/>
    <vehicle id="v_l_56" type="Car" depart="275.00" route="r_1"/>
    <vehicle id="v_r_56" type="Car" depart="275.00" route="r_0"/>
    <vehicle id="v_l_57" type="Car" depart="280.00" route="r_1"/>
    <vehicle id="v_r_57" type="Car" depart="280.00" route="r_0"/>
    <vehicle id="v_l_58" type="Car" depart="285.00" route="r_1"/>
    <vehicle id="v_r_58" type="Car" depart="285.00" route="r_0"/>
    <vehicle id="v_l_59" type="Car" depart="290.00" route="r_1"/>
    <vehicle id="v_r_59" type="Car" depart="290.00" route="r_0"/>
    <vehicle id="v_l_60" type="Car" depart="295.00" route="r_1"/>
    <vehicle id="v_r_60" type="Car" depart="295.00" route="r_0"/>
    <vehicle id="v_l_61" type="Car" depart="300.00" route="r_1"/>
    <vehicle id="v_r_61" type="Car" depart="300.00" route="r_0"/>
    <vehicle id="v_l_62" type="Car" depart="305.00" route="r_1"/>
    <vehicle id="v_r_62" type="Car" depart="305.00" route="r_0"/>
    <vehicle id="v_l_63" type="Car" depart="310.00" route="r_1"/>
    <vehicle id="v_r_63" type="Car" depart="310.00" route="r_0"/>
    <vehicle id="v_l_64" type="Car" depart="315.00" route="r_1"/>
    <vehicle id="v_r_64" type="Car" depart="315.00" route="r_0"/>
    <vehicle id="v_l_65" type="Car" depart="320.00" route="r_1"/>
    <vehicle id="v_r_65" type="Car" depart="320.00" route="r_0"/>
    <vehicle id="v_l_66" type="Car" depart="325.00" route="r_1"/>
    <vehicle id="v_r_66" type="Car" depart="325.00" route="r_0"/>
    <vehicle id="v_l_67" type="Car" depart="330.00" route="r_1"/>
    <vehicle id="v_r_67" type="Car" depart="330.00" route="r_0"/>
    <vehicle id="v_l_68" type="Car" depart="335.00" route="r_1"/>
    <vehicle id="v_r_68" type="Car" depart="335.00" route="r_0"/>
    <vehicle id="v_l_69" type="Car" depart="340.00" route="r_1"/>
    <vehicle id="v_r_69" type="Car" depart="340.00" route="r_0"/>
    <vehicle id="v_l_70" type="Car" depart="345.00" route="r_1"/>
    <vehicle id="v_r_70" type="Car" depart="345.00" route="r_0"/>
    <vehicle id="v_l_71" type="Car" depart="350.00" route="r_1"/>
    <vehicle id="v_r_71" type="Car" depart="350.00" route="r_0"/>
    <vehicle id="v_l_72" type="Car" depart="355.00" route="r_1"/>
    <vehicle id="v_r_72" type="Car" depart="355.00" route="r_0"/>
    <vehicle id="v_l_73" type="Car" depart="360.00" route="r_1"/>
    <vehicle id="v_r_73" type="Car" depart="360.00" route="r_0"/>
    <vehicle id="v_l_74" type="Car" depart="365.00" route="r_1"/>
    <vehicle id="v_r_74" type="Car" depart="365.00" route="r_0"/>
    <vehicle id="v_l_75" type="Car" depart="370.00" route="r_1"/>
    <vehicle id="v_r_75" type="Car" depart="370.00" route="r_0"/>
    <vehicle id="v_l_76" type="Car" depart="375.00" route="r_1"/>
    <vehicle id="v_r_76" type="Car" depart="375.00" route="r_0"/>
    <vehicle id="v_l_77" type="Car" depart="380.00" route="r_1"/>
    <vehicle id="v_r_77" type="Car" depart="380.00" route="r_0"/>
    <vehicle id="v_l_78" type="Car" depart="385.00" route="r_1"/>
    <vehicle id="v_r_78" type="Car" depart="385.00" route="r_0"/>
    <vehicle id="v_l_79" type="Car" depart="390.00" route="r_1"/>
    <vehicle id="v_r_79" type="Car" depart="390.00" route="r_0"/>
    <vehicle id="v_l_80" type="Car" depart="395.00" route="r_1"/>
    <vehicle id="v_r_80" type="Car" depart="395.00" route="r_0"/>
    <vehicle id="v_l_81" type="Car" depart="400.00" route="r_1"/>
    <vehicle id="v_r_81" type="Car" depart="400.00" route="r_0"/>
    <vehicle id="v_l_82" type="Car" depart="405.00" route="r_1"/>
    <vehicle id="v_r_82" type="Car" depart="405.00" route="r_0"/>
    <vehicle id="v_l_83" type="Car" depart="410.00" route="r_1"/>
    <vehicle id="v_r_83" type="Car" depart="410.00" route="r_0"/>
    <vehicle id="v_l_84" type="Car" depart="415.00" route="r_1"/>
    <vehicle id="v_r_84" type="Car" depart="415.00" route="r_0"/>
    <vehicle id="v_l_85" type="Car" depart="420.00" route="r_1"/>
    <vehicle id="v_r_85" type="Car" depart="420.00" route="r_0"/>
    <vehicle id="v_l_86" type="Car" depart="425.00" route="r_1"/>
    <vehicle id="v_r_86" type="Car" depart="425.00" route="r_0"/>
    <vehicle id="v_l_87" type="Car" depart="430.00" route="r_1"/>
    <vehicle id="v_r_87" type="Car" depart="430.00" route="r_0"/>
    <vehicle id="v_l_88" type="Car" depart="435.00" route="r_1"/>
    <vehicle id="v_r_88" type="Car" depart="435.00" route="r_0"/>
    <vehicle id="v_l_89" type="Car" depart="440.00" route="r_1"/>
    <vehicle id="v_r_89" type="Car" depart="440.00" route="r_0"/>
    <vehicle id="v_l_90" type="Car" depart="445.00" route="r_1"/>
    <vehicle id="v_r_90" type="Car" depart="445.00" route="r_0"/>
    <vehicle id="v_l_91" type="Car" depart="450.00" route="r_1"/>
    <vehicle id="v_r_91" type="Car" depart="450.00" route="r_0"/>
    <vehicle id="v_l_92" type="Car" depart="455.00" route="r_1"/>
    <vehicle id="v_r_92" type="Car" depart="455.00" route="r_0"/>
    <vehicle id="v_l_93" type="Car" depart="460.00" route="r_1"/>
    <vehicle id="v_r_93" type="Car" depart="460.00" route="r_0"/>
    <vehicle id="v_l_94" type="Car" depart="465.00" route="r_1"/>
    <vehicle id="v_r_94" type="Car" depart="465.00" route="r_0"/>
    <vehicle id="v_l_95" type="Car" depart="470.00" route="r_1"/>
    <vehicle id="v_r_95" type="Car" depart="470.00" route="r_0"/>
    <vehicle id="v_l_96" type="Car" depart="475.00" route="r_1"/>
    <vehicle id="v_r_96" type="Car" depart="475.00" route="r_0"/>
    <vehicle id="v_l_97" type="Car" depart="480.00" route="r_1"/>
    <vehicle id="v_r_97" type="Car" depart="480.00" route="r_0"/>
    <vehicle id="v_l_98" type="Car" depart="485.00" route="r_1"/>
    <vehicle id="v_r_98" type="Car" depart="485.00" route="r_0"/>
    <vehicle id="v_l_99" type="Car" depart="490.00" route="r_1"/>
    <vehicle id="v_r_99" type="Car" depart="490.00" route="r_0"/>
    <vehicle id="v_l_100" type="Car" depart="495.00" route="r_1"/>
    <vehicle id="v_r_100" type="Car" depart="495.00" route="r_0"/>
    <vehicle id="v_l_101" type="Car" depart="500.00" route="r_1"/>
    <vehicle id="v_r_101" type="Car" depart="500.00" route="r_0"/>
    <vehicle id="v_l_102" type="Car" depart="505.00" route="r_1"/>
    <vehicle id="v_r_102" type="Car" depart="505.00" route="r_0"/>
    <vehicle id="v_l_103" type="Car" depart="510.00" route="r_1"/>
    <vehicle id="v_r_103" type="Car" depart="510.00" route="r_0"/>
    <vehicle id="v_l_104" type="Car" depart="515.00" route="r_1"/>
    <vehicle id="v_r_104" type="Car" depart="515.00" route="r_0"/>
    <vehicle id="v_l_105" type="Car" depart="520.00" route="r_1"/>
    <vehicle id="v_r_105" type="Car" depart="520.00" route="r_0"/>
    <vehicle id="v_l_106" type="Car" depart="525.00" route="r_1"/>
    <vehicle id="v_r_106" type="Car" depart="525.00" route="r_0"/>
    <vehicle id="v_l_107" type="Car" depart="530.00" route="r_1"/>
    <vehicle id="v_r_107" type="Car" depart="530.00" route="r_0"/>
    <vehicle id="v_l_108" type="Car" depart="535.00" route="r_1"/>
    <vehicle id="v_r_108" type="Car" depart="535.00" route="r_0"/>
    <vehicle id="v_l_109" type="Car" depart="540.00" route="r_1"/>
    <vehicle id="v_r_109" type="Car" depart="540.00" route="r_0"/>
    <vehicle id="v_l_110" type="Car" depart="545.00" route="r_1"/>
    <vehicle id="v_r_110" type="Car" depart="545.00" route="r_0"/>
    <vehicle id="v_l_111" type="Car" depart="550.00" route="r_1"/>
    <vehicle id="v_r_111" type="Car" depart="550.00" route="r_0"/>
    <vehicle id="v_l_112" type="Car" depart="555.00" route="r_1"/>
    <vehicle id="v_r_112" type="Car" depart="555.00" route="r_0"/>
    <vehicle id="v_l_113" type="Car" depart="560.00" route="r_1"/>
    <vehicle id="v_r_113" type="Car" depart="560.00" route="r_0"/>
    <vehicle id="v_l_114" type="Car" depart="565.00" route="r_1"/>
    <vehicle id="v_r_114" type="Car" depart="565.00" route="r_0"/>
    <vehicle id="v_l_115" type="Car" depart="570.00" route="r_1"/>
    <vehicle id="v_r_115" type="Car" depart="570.00" route="r_0"/>
    <vehicle id="v_l_116" type="Car" depart="575.00" route="r_1"/>
    <vehicle id="v_r_116" type="Car" depart="575.00" route="r_0"/>
    <vehicle id="v_l_117" type="Car" depart="580.00" route="r_1"/>
    <vehicle id="v_r_117" type="Car" depart="580.00" route="r_0"/>
    <vehicle id="v_l_118" type="Car" depart="585.00" route="r_1"/>
    <vehicle id="v_r_118" type="Car" depart="585.00" route="r_0"/>
    <vehicle id="v_l_119" type="Car" depart="590.00" route="r_1"/>
    <vehicle id="v_r_119" type="Car" depart="590.00" route="r_0"/>
    <vehicle id="v_l_120" type="Car" depart="595.00" route="r_1"/>
    <vehicle id="v_r_120" type="Car" depart="595.00" route="r_0"/>
    <vehicle id="v_l_121" type="Car" depart="600.00" route="r_1"/>
    <vehicle id="v_r_121" type="Car" depart="600.00" route="r_0"/>
    <vehicle id="v_l_122" type="Car" depart="605.00" route="r_1"/>
    <vehicle id="v_r_122" type="Car" depart="605.00" route="r_0"/>
    <vehicle id="v_l_123" type="Car" depart="610.00" route="r_1"/>
    <vehicle id="v_r_123" type="Car" depart="610.00" route="r_0"/>
    <vehicle id="v_l_124" type="Car" depart="615.00" route="r_1"/>
    <vehicle id="v_r_124" type="Car" depart="615.00" route="r_0"/>
    <vehicle id="v_l_125" type="Car" depart="620.00" route="r_1"/>
    <vehicle id="v_r_125" type="Car" depart="620.00" route="r_0"/>
    <vehicle id="v_l_126" type="Car" depart="625.00" route="r_1"/>
    <vehicle id="v_r_126" type="Car" depart="625.00" route="r_0"/>
    <vehicle id="v_l_127" type="Car" depart="630.00" route="r_1"/>
    <vehicle id="v_r_127" type="Car" depart="630.00" route="r_0"/>
    <vehicle id="v_l_128" type="Car" depart="635.00" route="r_1"/>
    <vehicle id="v_r_128" type="Car" depart="635.00" route="r_0"/>
    <vehicle id="v_l_129" type="Car" depart="640.00" route="r_1"/>
    <vehicle id="v_r_129" type="Car" depart="640.00" route="r_0"/>
    <vehicle id="v_l_130" type="Car" depart="645.00" route="r_1"/>
    <vehicle id="v_r_130" type="Car" depart="645.00" route="r_0"/>
    <vehicle id="v_l_131" type="Car" depart="650.00" route="r_1"/>
    <vehicle id="v_r_131" type="Car" depart="650.00" route="r_0"/>
    <vehicle id="v_l_132" type="Car" depart="655.00" route="r_1"/>
    <vehicle id="v_r_132" type="Car" depart="655.00" route="r_0"/>
    <vehicle id="v_l_133" type="Car" depart="660.00" route="r_1"/>
    <vehicle id="v_r_133" type="Car" depart="660.00" route="r_0"/>
    <vehicle id="v_l_134" type="Car" depart="665.00" route="r_1"/>
    <vehicle id="v_r_134" type="Car" depart="665.00" route="r_0"/>
    <vehicle id="v_l_135" type="Car" depart="670.00" route="r_1"/>
    <vehicle id="v_r_135" type="Car" depart="670.00" route="r_0"/>
    <vehicle id="v_l_136" type="Car" depart="675.00" route="r_1"/>
    <vehicle id="v_r_136" type="Car" depart="675.00" route="r_0"/>
    <vehicle id="v_l_137" type="Car" depart="680.00" route="r_1"/>
    <vehicle id="v_r_137" type="Car" depart="680.00" route="r_0"/>
    <vehicle id="v_l_138" type="Car" depart="685.00" route="r_1"/>
    <vehicle id="v_r_138" type="Car" depart="685.00" route="r_0"/>
    <vehicle id="v_l_139" type="Car" depart="690.00" route="r_1"/>
    <vehicle id="v_r_139" type="Car" depart="690.00" route="r_0"/>
    <vehicle id="v_l_140" type="Car" depart="695.00" route="r_1"/>
    <vehicle id="v_r_140" type="Car" depart="695.00" route="r_0"/>
    <vehicle id="v_l_141" type="Car" depart="700.00" route="r_1"/>
    <vehicle id="v_r_141" type="Car" depart="700.00" route="r_0"/>
    <vehicle id="v_l_142" type="Car" depart="705.00" route="r_1"/>
    <vehicle id="v_r_142" type="Car" depart="705.00" route="r_0"/>
    <vehicle id="v_l_143" type="Car" depart="710.00" route="r_1"/>
    <vehicle id="v_r_143" type="Car" depart="710.00" route="r_0"/>
    <vehicle id="v_l_144" type="Car" depart="715.00" route="r_1"/>
    <vehicle id="v_r_144" type="Car" depart="715.00" route="r_0"/>
    <vehicle id="v_l_145" type="Car" depart="720.00" route="r_1"/>
    <vehicle id="v_r_145" type="Car" depart="720.00" route="r_0"/>
    <vehicle id="v_l_146" type="Car" depart="725.00" route="r_1"/>
    <vehicle id="v_r_146" type="Car" depart="725.00" route="r_0"/>
    <vehicle id="v_l_147" type="Car" depart="730.00" route="r_1"/>
    <vehicle id="v_r_147" type="Car" depart="730.00" route="r_0"/>
    <vehicle id="v_l_148" type="Car" depart="735.00" route="r_1"/>
    <vehicle id="v_r_148" type="Car" depart="735.00" route="r_0"/>
    <vehicle id="v_l_149" type="Car" depart="740.00" route="r_1"/>
    <vehicle id="v_r_149" type="Car" depart="740.00" route="r_0"/>
    <vehicle id="v_l_150" type="Car" depart="745.00" route="r_1"/>
    <vehicle id="v_r_150" type="Car" depart="745.00" route="r_0"/>
</routes>
