<?xml version="1.0" encoding="UTF-8"?>

<!-- generated on 2024-04-15 20:49:23 by Eclipse SUMO netedit Version 1.19.0
-->

<routes xmlns:xsi="http://www.w3.org/2001/XMLSchema-instance" xsi:noNamespaceSchemaLocation="http://sumo.dlr.de/xsd/routes_file.xsd">
    <!-- Routes -->
    <route id="r_1" edges="-E1 -E3"/>
    <route id="r_2" edges="E3 -E0"/>
    <route id="r_3" edges="E3 E1"/>
    <route id="r_4" edges="E0 -E3"/>
    <route id="r_5" edges="E0 E1"/>
    <!-- Vehicles, persons and containers (sorted by depart) -->
    <vehicle id="v_0" depart="0.00" route="r_1"/>
    <vehicle id="v_1" depart="0.00" route="r_5"/>
    <vehicle id="v_2" depart="0.00" route="r_3"/>
    <vehicle id="v_4" depart="0.00" route="r_4"/>
    <vehicle id="v_3" depart="1.00" route="r_3"/>
</routes>
