<?xml version="1.0" encoding="UTF-8"?>

<!-- generated on 2024-11-06 06:14:03 by Eclipse SUMO sumo Version 1.20.0
-->

<configuration xmlns:xsi="http://www.w3.org/2001/XMLSchema-instance" xsi:noNamespaceSchemaLocation="http://sumo.dlr.de/xsd/sumoConfiguration.xsd">

    <input>
        <net-file value="multiple-rsu-street-congestion.net.xml"/>
        <route-files value="multiple-rsu-street-congestion.rou.xml"/>
    </input>

</configuration>
